*MODEL INPUT FILE            B    10     1     2   999     0
*FILES              
MODEL          MZCER048
FILEX          AGPI8101.MZX C:/Users/cyeba/Desktop/DSSAT_simulation/DSSAT48/Maize/                          
FILEA          AGPI8101.MZA C:/Users/cyeba/Desktop/DSSAT_simulation/DSSAT48/Maize/                          
FILET          AGPI8101.MZT C:/Users/cyeba/Desktop/DSSAT_simulation/DSSAT48/Maize/                          
SPECIES        MZCER048.SPE C:\DSSAT48\GENOTYPE\                                                            
ECOTYPE        MZCER048.ECO C:\DSSAT48\GENOTYPE\                                                            
CULTIVAR       MZCER048.CUL C:\DSSAT48\GENOTYPE\                                                            
PESTS          MZCER048.PST C:\DSSAT48\PEST\                                                                
SOILS          DH.SOL       C:\DSSAT48\SOIL\                                                                
WEATHERW       AGPI8101.WTH C:\DSSAT48\Weather\                                                             
OUTPUT         OVERVIEW
*SIMULATION CONTROL 
                   1     1     S 1981258  2150 No-irrigate              
                   Y     N     N     N     N     N     N     Y     M
                   M     M     E     R     S     C     R     1     G     S     2     D     0
                   R     N     D     R     M
                   N     Y     Y     1     Y     N     Y     Y     N     N     Y     N     N
!AUTOMATIC MANAGEM  
                   -99     -99   40.  100.   30.   40.   10.
                 30.   50.  100. GS000 IR001  10.0 1.000
                 30.   50.   25. FE001 GS000
                100.     1   20.
                     0     -99  100.    0.
*EXP.DETAILS        
  1AGPI8101 MZ TAOYUAN XINWU                                               
*TREATMENTS         
  2 1 0 0 No_Irrigated             
*CULTIVARS          
   MZ IB0028 TAINAN-11       
*FIELDS             
   AFTD0001 AGPI8101   0.0    0. DR000    0. 100.0 00000 yLoam  150. DH03368002
      0.0000000000    0.0000000000     0.000               1.0  100.   1.0   0.0   -99   -99
*INITIAL CONDITIONS 
               0     0     0  1.00  1.00   0.0     0  0.00  0.00  100.    0.
      5. 0.345   0.0   0.0
     15. 0.350   0.0   0.0
     30. 0.372   0.0   0.0
     45. 0.417   0.0   0.0
     60. 0.417   0.0   0.0
     80. 0.417   0.0   0.0
    100. 0.417   0.0   0.0
    150. 0.418   0.0   0.0
    200. 0.418   0.0   0.0
*PLANTING DETAILS   
   1981258     -99  10.0  10.0     S     R   50.    0.   4.0  -99.  -99. -99.0 -99.0   0.0
*IRRIGATION         
   1.000    0.    0.    0. GS000 IR001   0.0
*FERTILIZERS        
*RESIDUES           
*CHEMICALS          
*TILLAGE            
*ENVIRONMENT        
*HARVEST            
*SOIL               
 DH03368002    TWN   San yLoam  150.    DSM + LSM                                      
 -99              TW      25.292 121.534     HC_GEN0012                                    
 BK     0.10   6.0  0.50   75.  1.00  1.00 SA001 SA001 SA001 -99  
    5.       0.167 0.345 0.481 1.000  2.15  1.15 5.500  15.0  26.0 -99.0 0.120  6.90-99.00 12.00-99.00
   15.       0.175 0.350 0.480 0.850  1.75  1.17 4.700  17.0  24.0 -99.0 0.090  6.90-99.00 10.00-99.00
   30.       0.207 0.372 0.478 0.700  1.38  1.20 3.600  19.0  23.0 -99.0 0.070  7.00-99.00 10.00-99.00
   45.       0.274 0.417 0.472 0.500  1.12  1.25 2.300  21.0  22.0 -99.0 0.060  7.20-99.00 11.00-99.00
   60.       0.274 0.417 0.472 0.500  1.12  1.25 2.300  21.0  22.0 -99.0 0.060  7.20-99.00 11.00-99.00
   80.       0.275 0.417 0.472 0.000  1.03  1.32 1.300  22.0  22.0 -99.0   0.0  7.30-99.00 11.00-99.00
  100.       0.275 0.417 0.472 0.000  1.03  1.32 1.300  22.0  22.0 -99.0   0.0  7.30-99.00 11.00-99.00
  150.       0.275 0.418 0.472 0.000  1.31  1.37 0.800  20.0  22.0 -99.0   0.0  7.50-99.00 11.00-99.00
  200.       0.275 0.418 0.472 0.000  1.31  1.37 0.800  20.0  22.0 -99.0   0.0  7.50-99.00 11.00-99.00
                    
    5.-99.00 -99.0 -99.0 -99.0 -99.0 -99.0 -99.0 -99.0 -99.0 -99.0-99.00 -99.0 -99.0 -99.0 -99.0 -99.0  -99.
   15.-99.00 -99.0 -99.0 -99.0 -99.0 -99.0 -99.0 -99.0 -99.0 -99.0-99.00 -99.0 -99.0 -99.0 -99.0 -99.0  -99.
   30.-99.00 -99.0 -99.0 -99.0 -99.0 -99.0 -99.0 -99.0 -99.0 -99.0-99.00 -99.0 -99.0 -99.0 -99.0 -99.0  -99.
   45.-99.00 -99.0 -99.0 -99.0 -99.0 -99.0 -99.0 -99.0 -99.0 -99.0-99.00 -99.0 -99.0 -99.0 -99.0 -99.0  -99.
   60.-99.00 -99.0 -99.0 -99.0 -99.0 -99.0 -99.0 -99.0 -99.0 -99.0-99.00 -99.0 -99.0 -99.0 -99.0 -99.0  -99.
   80.-99.00 -99.0 -99.0 -99.0 -99.0 -99.0 -99.0 -99.0 -99.0 -99.0-99.00 -99.0 -99.0 -99.0 -99.0 -99.0  -99.
  100.-99.00 -99.0 -99.0 -99.0 -99.0 -99.0 -99.0 -99.0 -99.0 -99.0-99.00 -99.0 -99.0 -99.0 -99.0 -99.0  -99.
  150.-99.00 -99.0 -99.0 -99.0 -99.0 -99.0 -99.0 -99.0 -99.0 -99.0-99.00 -99.0 -99.0 -99.0 -99.0 -99.0  -99.
  200.-99.00 -99.0 -99.0 -99.0 -99.0 -99.0 -99.0 -99.0 -99.0 -99.0-99.00 -99.0 -99.0 -99.0 -99.0 -99.0  -99.
                    
    5.-99.00-99.00-99.00-99.00
   15.-99.00-99.00-99.00-99.00
   30.-99.00-99.00-99.00-99.00
   45.-99.00-99.00-99.00-99.00
   60.-99.00-99.00-99.00-99.00
   80.-99.00-99.00-99.00-99.00
  100.-99.00-99.00-99.00-99.00
  150.-99.00-99.00-99.00-99.00
  200.-99.00-99.00-99.00-99.00
*CULTIVAR           
IB0028 TAINAN-11        IB0001  200.0 0.800 670.0 803.0  6.80 38.90
