*EXP.DETAILS: AGPI8101TM TAOYUAN                                                     

*FILES
@N  EXP.DATA    AFILE        ADIR
  2 EXP         AGPI8101.TMA C:/Users/cyeba/Desktop/DSSAT_simulation/DSSAT48/Tomato/                         
@N  SPECIES     SPFILE       SPDIR
  2 SPE         TMGRO048.SPE C:\DSSAT48\GENOTYPE\                                                            
@N  ECOTYPE     EFILE        EDIR
  2 ECO         TMGRO048.ECO C:\DSSAT48\GENOTYPE\                                                            
@N  CULTIVAR    CFILE        CDIR
  2 CUL         TMGRO048.CUL C:\DSSAT48\GENOTYPE\                                                            
@N  SOIL        SFILE        SDIR
  2 SOIL        DH.SOL       C:\DSSAT48\SOIL\                                                                
@N  WEATHER     WFILE        WDIR
  2 WEATH       AGPI8101.WTH C:\DSSAT48\Weather\                                                             

*SIMULATION CONTROL
@N  GENERAL     NYERS NREPS START   SDATE RSEED SNAME.................... MODEL...
  2 GE              1     1     S 1981196  2150 No-Irrigated              CRGRO048
@N  OPTIONS     WATER NITRO SYMBI PHOSP POTAS DISES  CHEM  TILL   CO2
  2 OP              Y     N     N     N     N     N     N     N     M
@N  METHODS     WTHER INCON LIGHT EVAPO INFIL PHOTO HYDRO NSWIT SOMDY MESEV MESOL METMP MEGHG
  2 ME              M     M     E     R     S     L     R     1     G     R     2     D     0
@N  MANAGEMENT  PLANT IRRIG FERTI RESID HARVS
  2 MA              R     N     R     N     D
@N  OUTPUTS     FNAME OVVEW SUMRY FROPT GROUT CAOUT WAOUT NIOUT MIOUT DIOUT  LONG CHOUT OPOUT
  2 OU              N     Y     Y     1     Y     Y     Y     Y     N     N     Y     N     N

!AUTOMATIC MANAGEM
@N  PLANTING      PFRST   PLAST PH2OL PH2OU PH2OD PSTMX PSTMN
  2 PL              -99     -99   40.  100.   30.   45.   40.
@N  IRRIGATION  IMDEP ITHRL ITHRU IROFF IMETH IRAMT IREFF
  2 IR            30.   70.  100. GS000 SI001  10.0 1.000
@N  NITROGEN    NMDEP NMTHR NAMNT NCODE NAOFF
  2 NI           200.   50.   25. SI001 SI001
@N  RESIDUES    RIPCN RTIME RIDEP
  2 RE           100.    60   20.
@N  HARVEST     HFRST   HLAST HPCNP HRCNR
  2 HA            164     -99   75.    0.

*TREATMENTS
@N   R O C TNAME....................  CU  FL  SA  IC  MP  MI  MF  MR  MC  MT  ME  MH  SM
  2  1 0 0 No-Irrigate                 1   1   0   0   1   0   0   0   0   0   0   1   2

*CULTIVARS
@C  CR INGENO CNAME
  1 TM TM0007 Sunny S-D 2010 C

*FIELDS
@L  ID_FIELD WSTA....  FLSA  FLOB  FLDT  FLDD  FLDS  FLST SLTX   SLDP ID_SOIL
  1 AFTD0001 AGPI8101   0.0    0.   -99    0.  100.   -99 yLoam  150. DH03368002
@L             XCRD            YCRD      ELEV              AREA  SLEN  FLWR  SLAS PRMGT
  1         0.00000         0.00000      0.00               1.0  100.   1.0   0.0   -99   -99

*INITIAL CONDITIONS
@C  PCR     ICDAT  ICRT  ICND  ICRN  ICRE  ICWD ICRES ICREN ICREP ICRIP ICRID
  0             0     0     0  1.00  1.00   0.0     0  0.00  0.00  100.    0.
@C   ICBL  SH2O  SNH4  SNO3
  0    5. 0.345   0.0   0.0
  0   15. 0.350   0.0   0.0
  0   30. 0.372   0.0   0.0
  0   45. 0.417   0.0   0.0
  0   60. 0.417   0.0   0.0
  0   80. 0.417   0.0   0.0
  0  100. 0.417   0.0   0.0
  0  150. 0.418   0.0   0.0
  0  200. 0.418   0.0   0.0

*PLANTING DETAILS
@P    PDATE   EDATE  PPOP  PPOE  PLME  PLDS  PLRS  PLRD  PLDP  PLWT  PAGE  PENV  PLPH  SPRL
  1 1981196     -99   1.5   1.5     T     R  150.    0.   3.0    5.   30.  25.0   1.0   0.0

*IRRIGATION
@I   IEFF  IDEP  ITHR  IEPT  IOFF  IAME  IAMT
  0 1.000    0.    0.    0. GS000 IR001   0.0
@I    IDATE  IROP IRVAL

*FERTILIZERS
@F    FDATE  FMCD  FACD  FDEP  FAMN  FAMP  FAMK  FAMC  FAMO  FOCD

*RESIDUES
@R    RDATE  RCOD  RAMT  RESN  RESP  RESK  RINP  RDEP  RMET

*CHEMICALS
@C    CDATE CHCOD CHAMT  CHME CHDEP   CHT

*TILLAGE
@T    TDATE TIMPL  TDEP

*ENVIRONMENT
@E    ODATE  EDAY  ERAD  EMAX  EMIN ERAIN  ECO2  EDEW EWIND

*HARVEST
@H    HDATE  HSTG  HCOM HSIZE   HPC  HBPC
  1      90 GS000   -99   -99  100.    0.
